Circuit: * C:\Users\Student.N2095-152\Documents\GitHub\MultiversePreamp\555timer_voltageInerter_ChargePump_2.asc

Direct Newton iteration for .op point succeeded.

Date: Fri Apr 10 14:59:02 2015
Total elapsed time: 3.335 seconds.

tnom = 27
temp = 27
method = modified trap
totiter = 434080
traniter = 434048
tranpoints = 90156
accept = 68617
rejected = 21539
matrix size = 20
fillins = 0
solver = Normal
Matrix Compiler1: 684 bytes object code size  0.4/0.2/[0.1]
Matrix Compiler2: off  [0.2]/0.3/0.5


