Circuit: * C:\Users\Matt\Documents\GitHub\sensornet\Baxandall Tone Control_NoPreOpAmp.asc

WARNING: Node N010 is floating.

WARNING: Less than two connections to node N010.  This node is used by C7.
Direct Newton iteration failed to find .op point.  (Use ".option noopiter" to skip.)
Starting Gmin stepping
Gmin = 10
Gmin = 1.07374
Gmin = 0.115292
Gmin = 0.0123794
Gmin = 0.00132923
Gmin = 0.000142725
Gmin = 1.5325e-005
Gmin = 1.6455e-006
vernier = 0.5
Gmin = 4.20774e-007
vernier = 0.666667
vernier = 0.888888
Gmin = 8.12392e-008
vernier = 1
Gmin = 9.33136e-009
Gmin = 1.00195e-009
Gmin = 1.07583e-010
Gmin = 1.15517e-011
Gmin = 1.24035e-012
Gmin = 1.33182e-013
Gmin = 0
Gmin stepping succeeded in finding the operating point.


Date: Mon Dec 15 22:38:34 2014
Total elapsed time: 0.094 seconds.

tnom = 27
temp = 27
method = modified trap
totiter = 1195
traniter = 676
tranpoints = 339
accept = 262
rejected = 77
matrix size = 21
fillins = 16
solver = Normal
Matrix Compiler1: 1.57 KB object code size  0.7/0.3/[0.2]
Matrix Compiler2: 1.94 KB object code size  0.5/0.5/[0.4]


