Circuit: * C:\Users\Matt\Documents\GitHub\MultiversePreamp\Baxandall Tone Control.asc

Early termination of direct N-R iteration.
Direct Newton iteration failed to find .op point.  (Use ".option noopiter" to skip.)
Starting Gmin stepping
Gmin = 10
vernier = 0.5
vernier = 0.25
vernier = 0.125
Gmin = 6.49
vernier = 0.0625
vernier = 0.03125
vernier = 0.015625
vernier = 0.0078125
vernier = 0.00390625
Gmin = 6.67976
vernier = 0.00195313
vernier = 0.000976563
vernier = 0.000488281
Gmin = 0
Gmin stepping failed

Starting source stepping with srcstepmethod=0
Source Step = 3.0303%
Source Step = 33.3333%
Source Step = 63.6364%
Source Step = 93.9394%
Source stepping succeeded in finding the operating point.


Date: Mon Jan 12 23:32:26 2015
Total elapsed time: 0.094 seconds.

tnom = 27
temp = 27
method = trap
totiter = 1622
traniter = 0
tranpoints = 0
accept = 0
rejected = 0
matrix size = 64
fillins = 233
solver = Normal
Matrix Compiler1:     975 opcodes
Matrix Compiler2: off  [1.3]/1.4/1.9


