Circuit: * C:\Users\Student.N2095-152\Documents\GitHub\MultiversePreamp\Draft1.asc

WARNING: Node N001 is floating.

.OP point found by inspection.

Date: Fri Apr 17 12:27:03 2015
Total elapsed time: 0.171 seconds.

tnom = 27
temp = 27
method = modified trap
totiter = 40122
traniter = 40122
tranpoints = 20062
accept = 20060
rejected = 2
matrix size = 6
fillins = 6
solver = Normal
Matrix Compiler1: 928 bytes object code size  0.3/0.1/[0.1]
Matrix Compiler2: 646 bytes object code size  0.1/0.1/[0.0]


