Circuit: * C:\Users\Student.N2095-152\Documents\GitHub\MultiversePreamp\Draft1.asc

C2: both pins shorted together -- ignoring.

Date: Wed Apr 15 12:16:08 2015
Total elapsed time: 0.016 seconds.

tnom = 27
temp = 27
method = trap
totiter = 0
traniter = 0
tranpoints = 0
accept = 0
rejected = 0
matrix size = 7
fillins = 2
solver = Normal

