Circuit: * C:\Users\Matt\Documents\GitHub\MultiversePreamp\Draft3.asc

Limiting rise time of source v2 to 0.005
Limiting fall time of source v2 to 0.005
Direct Newton iteration for .op point succeeded.

Date: Sat Apr 04 15:38:39 2015
Total elapsed time: 0.032 seconds.

tnom = 27
temp = 27
method = modified trap
totiter = 477
traniter = 462
tranpoints = 211
accept = 191
rejected = 20
matrix size = 6
fillins = 0
solver = Normal
Matrix Compiler1: 200 bytes object code size  0.1/0.0/[0.0]
Matrix Compiler2: 362 bytes object code size  0.0/0.1/[0.0]


