Circuit: * C:\Users\Matt\Documents\GitHub\MultiversePreamp\Draft2.asc

WARNING: Node N001 is floating.

.OP point found by inspection.

Date: Sat Apr 18 00:42:23 2015
Total elapsed time: 0.681 seconds.

tnom = 27
temp = 27
method = modified trap
totiter = 50115
traniter = 50115
tranpoints = 25058
accept = 25056
rejected = 2
matrix size = 17
fillins = 10
solver = Normal
Matrix Compiler1: 1.83 KB object code size  0.7/0.5/[0.2]
Matrix Compiler2: 1.58 KB object code size  0.3/0.5/[0.2]


