Circuit: * C:\Users\Matt\Documents\GitHub\MultiversePreamp\mute.asc

Direct Newton iteration failed to find .op point.  (Use ".option noopiter" to skip.)
Starting Gmin stepping
Increasing initial diagonal Gmin to 100
Increasing initial diagonal Gmin to 1000
Increasing initial diagonal Gmin to 10000
Gmin = 10000
Gmin = 1073.74
Gmin = 115.292
Gmin = 12.3794
Gmin = 1.32923
Gmin = 0.142725
Gmin = 0.015325
Gmin = 0.0016455
Gmin = 0.000176685
Gmin = 1.89714e-005
vernier = 0.5
vernier = 0.25
vernier = 0.125
vernier = 0.0625
vernier = 0.03125
vernier = 0.015625
vernier = 0.0078125
vernier = 0.00390625
Gmin = 1.89529e-005
vernier = 0.00520833
Gmin = 1.87322e-005
vernier = 0.00694444
vernier = 0.00347222
vernier = 0.00462963
Gmin = 1.85865e-005
vernier = 0.00617283
vernier = 0.00308642
Gmin = 1.84508e-005
vernier = 0.00411522
vernier = 0.00548696
vernier = 0.00274348
Gmin = 1.83122e-005
vernier = 0.00365797
vernier = 0.0048773
Gmin = 1.81525e-005
vernier = 0.00650306
Gmin = 1.78963e-005
vernier = 0.00867074
vernier = 0.011561
Gmin = 1.74845e-005
vernier = 0.0154146
vernier = 0.0205529
Gmin = 1.68518e-005
vernier = 0.0274038
Gmin = 1.58742e-005
vernier = 0.0365384
vernier = 0.0487178
Gmin = 1.43966e-005
vernier = 0.0649571
vernier = 0.0866095
Gmin = 1.23369e-005
vernier = 0.115479
Gmin = 9.61367e-006
vernier = 0.153972
vernier = 0.0769862
vernier = 0.0384931
vernier = 0.0192465
Gmin = 7.7359e-006
vernier = 0.00962327
vernier = 0.00481163
vernier = 0.00240582
vernier = 0.00120291
vernier = 0.000601454
Gmin = 7.73009e-006
vernier = 0.000801939
vernier = 0.00106925
Gmin = 7.71254e-006
vernier = 0.00142567
vernier = 0.00190089
Gmin = 7.68465e-006
vernier = 0.00253452
Gmin = 7.64097e-006
vernier = 0.00337936
vernier = 0.00450581
Gmin = 7.56819e-006
vernier = 0.00600775
vernier = 0.00300387
vernier = 0.00150194
vernier = 0.000750968
vernier = 0.000563226
Gmin = 7.54798e-006
vernier = 0.00042242
Gmin = 0
Gmin stepping failed

Starting source stepping with srcstepmethod=0
Source Step = 3.0303%
Source Step = 7.38636%
Source Step = 9.2803%
Source Step = 11.1742%
Source Step = 13.0682%
Source Step = 14.9621%
vernier = 0.09375
Source Step = 17.4242%
Source Step = 20.2652%
Source Step = 23.1061%
Source Step = 25.947%
Source Step = 28.7879%
vernier = 0.140625
Source Step = 32.339%
Source Step = 36.6004%
Source Step = 40.8617%
Source Step = 45.1231%
Source Step = 49.3845%
vernier = 0.210938
Source Step = 54.4981%
Source Step = 60.8902%
Source Step = 67.2822%
Source Step = 73.6742%
Source Step = 80.0663%
vernier = 0.316406
Source Step = 87.4171%
Source Step = 97.0052%
Source stepping succeeded in finding the operating point.


Date: Tue May 12 11:23:12 2015
Total elapsed time: 0.235 seconds.

tnom = 27
temp = 27
method = trap
totiter = 5576
traniter = 0
tranpoints = 0
accept = 0
rejected = 0
matrix size = 36
fillins = 49
solver = Normal
Matrix Compiler1:     228 opcodes
Matrix Compiler2: off  [0.4]/0.7/1.0


