Circuit: * C:\Users\Matt\Documents\GitHub\MultiversePreamp\mute2.asc

.OP point found by inspection.

Date: Fri May 08 18:58:16 2015
Total elapsed time: 0.218 seconds.

tnom = 27
temp = 27
method = modified trap
totiter = 9050
traniter = 9050
tranpoints = 3329
accept = 2443
rejected = 886
matrix size = 8
fillins = 0
solver = Normal
Matrix Compiler1: 264 bytes object code size  0.2/0.1/[0.0]
Matrix Compiler2: 560 bytes object code size  0.1/0.1/[0.0]


