Circuit: * C:\Users\Matt\Documents\GitHub\MultiversePreamp\mute.asc

Direct Newton iteration failed to find .op point.  (Use ".option noopiter" to skip.)
Starting Gmin stepping
Increasing initial diagonal Gmin to 100
Increasing initial diagonal Gmin to 1000
Increasing initial diagonal Gmin to 10000
Gmin = 10000
Gmin = 1073.74
Gmin = 115.292
Gmin = 12.3794
Gmin = 1.32923
Gmin = 0.142725
Gmin = 0.015325
Gmin = 0.0016455
Gmin = 0.000176685
Gmin = 1.89714e-005
vernier = 0.5
vernier = 0.25
vernier = 0.125
vernier = 0.0625
vernier = 0.03125
vernier = 0.015625
vernier = 0.0078125
vernier = 0.00390625
Gmin = 1.89529e-005
vernier = 0.00520833
Gmin = 1.87322e-005
vernier = 0.00694444
vernier = 0.00925925
Gmin = 1.83676e-005
vernier = 0.0123457
vernier = 0.0164609
Gmin = 1.78011e-005
vernier = 0.0219478
Gmin = 1.69455e-005
vernier = 0.0292638
vernier = 0.0390184
Gmin = 1.56026e-005
vernier = 0.0520245
vernier = 0.0693659
Gmin = 1.36823e-005
vernier = 0.0924879
Gmin = 1.11359e-005
vernier = 0.123317
vernier = 0.164423
Gmin = 7.9e-006
vernier = 0.0822114
vernier = 0.0411057
vernier = 0.0205529
vernier = 0.0102764
vernier = 0.00513821
Gmin = 7.55892e-006
vernier = 0.00256911
vernier = 0.00128455
vernier = 0.000642277
vernier = 0.000481708
Gmin = 0
Gmin stepping failed

Starting source stepping with srcstepmethod=0
Source Step = 3.0303%
Source Step = 7.38636%
Source Step = 9.2803%
Source Step = 11.1742%
Source Step = 13.0682%
Source Step = 14.9621%
vernier = 0.09375
Source Step = 17.4242%
Source Step = 20.2652%
Source Step = 23.1061%
Source Step = 25.947%
Source Step = 28.7879%
vernier = 0.140625
Source Step = 32.339%
Source Step = 36.6004%
Source Step = 40.8617%
Source Step = 45.1231%
Source Step = 49.3845%
vernier = 0.210938
Source Step = 54.4981%
Source Step = 60.8902%
Source Step = 67.2822%
Source Step = 73.6742%
Source Step = 80.0663%
vernier = 0.316406
Source Step = 87.4171%
Source Step = 97.0052%
Source stepping succeeded in finding the operating point.

.step rb=50000 rbn=200000
.step rb=100000 rbn=200000
.step rb=1e+008 rbn=200000
.step rb=50000 rbn=0.001
.step rb=100000 rbn=0.001
.step rb=1e+008 rbn=0.001

Date: Sat May 02 13:52:48 2015
Total elapsed time: 2.885 seconds.

tnom = 27
temp = 27
method = modified trap
totiter = 13900
traniter = 12122
tranpoints = 6059
accept = 6051
rejected = 8
matrix size = 36
fillins = 48
solver = Normal
Thread vector: 23.5/15.9[3] 6.2/3.2[3] 3.5/1.9[3] 0.2/0.5[1]  2592/500
Matrix Compiler1: 3.97 KB object code size  1.5/0.6/[0.3]
Matrix Compiler2: 4.17 KB object code size  0.8/1.3/[0.8]


