Circuit: * C:\Users\Student.N2095-152\Documents\GitHub\MultiversePreamp\PS.asc

.OP point found by inspection.

Date: Tue Apr 14 11:06:11 2015
Total elapsed time: 5.630 seconds.

tnom = 27
temp = 27
method = modified trap
totiter = 887916
traniter = 887916
tranpoints = 227001
accept = 193180
rejected = 33821
matrix size = 12
fillins = 4
solver = Normal
Matrix Compiler1: 874 bytes object code size  0.4/0.2/[0.1]
Matrix Compiler2: 982 bytes object code size  0.2/0.2/[0.1]


