Circuit: * C:\Users\Matt\Documents\GitHub\MultiversePreamp\PS.asc

.OP point found by inspection.

Date: Mon May 04 20:51:34 2015
Total elapsed time: 1.129 seconds.

tnom = 27
temp = 27
method = modified trap
totiter = 181545
traniter = 181545
tranpoints = 69545
accept = 65911
rejected = 3634
matrix size = 13
fillins = 4
solver = Normal
Matrix Compiler1: 1004 bytes object code size  0.4/0.2/[0.1]
Matrix Compiler2: off  [0.1]/0.2/0.1


