Circuit: * C:\Users\Student.N2095-152\Documents\GitHub\MultiversePreamp\PS.asc

.OP point found by inspection.

Date: Wed Apr 15 09:51:32 2015
Total elapsed time: 5.296 seconds.

tnom = 27
temp = 27
method = modified trap
totiter = 1264280
traniter = 1264280
tranpoints = 274234
accept = 230428
rejected = 43806
matrix size = 12
fillins = 4
solver = Normal
Matrix Compiler1: 874 bytes object code size  0.3/0.1/[0.1]
Matrix Compiler2: off  [0.0]/0.2/0.1


