Circuit: * C:\Users\Matt\Documents\GitHub\MultiversePreamp\PS.asc

.OP point found by inspection.

Date: Sun Apr 26 10:54:07 2015
Total elapsed time: 0.541 seconds.

tnom = 27
temp = 27
method = modified trap
totiter = 64360
traniter = 64360
tranpoints = 26037
accept = 25630
rejected = 407
matrix size = 13
fillins = 4
solver = Normal
Matrix Compiler1: 1004 bytes object code size  0.5/0.3/[0.2]
Matrix Compiler2: 1.06 KB object code size  0.3/0.4/[0.2]


