Circuit: * C:\Users\Matt\Documents\GitHub\sensornet\turn on delay2.asc

Direct Newton iteration for .op point succeeded.

Date: Sat Dec 06 17:22:14 2014
Total elapsed time: 0.172 seconds.

tnom = 27
temp = 27
method = modified trap
totiter = 4160
traniter = 4144
tranpoints = 1619
accept = 1335
rejected = 284
matrix size = 19
fillins = 5
solver = Normal
Matrix Compiler1: 1.12 KB object code size  0.6/0.3/[0.2]
Matrix Compiler2: 1.57 KB object code size  0.3/0.6/[0.2]


